Version 4
SHEET 1 2952 800
WIRE 416 -320 416 -368
WIRE 464 -320 416 -320
WIRE 736 -320 544 -320
WIRE 1056 -320 736 -320
WIRE 1360 -320 1056 -320
WIRE 1600 -320 1360 -320
WIRE 1904 -320 1600 -320
WIRE 1360 -272 1360 -320
WIRE 1600 -272 1600 -320
WIRE 1056 -224 1056 -320
WIRE 1904 -192 1904 -320
WIRE 1360 -160 1360 -192
WIRE 1408 -160 1360 -160
WIRE 1504 -160 1504 -192
WIRE 1504 -160 1472 -160
WIRE 1600 -144 1600 -192
WIRE 1840 -144 1600 -144
WIRE 1360 -128 1360 -160
WIRE 1600 -128 1600 -144
WIRE 1600 -128 1536 -128
WIRE 192 -112 192 -192
WIRE 1056 -80 1056 -144
WIRE 1296 -80 1056 -80
WIRE 1536 -80 1536 -128
WIRE 1904 -80 1904 -96
WIRE 736 0 736 -320
WIRE 1056 0 1056 -80
WIRE 1360 32 1360 -32
WIRE 1600 32 1600 -32
WIRE 1600 32 1360 32
WIRE 192 48 192 -32
WIRE 192 48 112 48
WIRE 512 48 192 48
WIRE 672 48 592 48
WIRE 1200 48 1120 48
WIRE 1904 48 1904 0
WIRE 1904 48 1856 48
WIRE 2080 48 1904 48
WIRE 2224 48 2160 48
WIRE 2272 48 2224 48
WIRE 2448 48 2352 48
WIRE 592 80 592 48
WIRE 1680 80 592 80
WIRE 1856 80 1856 48
WIRE 1856 80 1760 80
WIRE 1904 80 1904 48
WIRE 592 112 592 80
WIRE 2448 112 2448 48
WIRE 112 128 112 48
WIRE 1360 128 1360 32
WIRE 1600 128 1600 32
WIRE 736 176 736 96
WIRE 896 176 736 176
WIRE 944 176 896 176
WIRE 1056 176 1056 96
WIRE 1056 176 1024 176
WIRE 1904 192 1904 160
WIRE 32 208 32 -112
WIRE 48 208 48 48
WIRE 64 208 64 128
WIRE 1536 224 1536 176
WIRE 1600 224 1536 224
WIRE 512 240 512 48
WIRE 592 240 592 192
WIRE 592 240 512 240
WIRE 1600 240 1600 224
WIRE 1840 240 1600 240
WIRE 896 256 896 176
WIRE 112 288 112 208
WIRE 752 304 672 304
WIRE 832 304 752 304
WIRE 1600 320 1600 240
WIRE 672 384 672 304
WIRE 752 384 752 304
WIRE 896 432 896 352
WIRE 672 544 672 464
WIRE 512 624 432 624
WIRE 752 624 752 464
WIRE 752 624 592 624
WIRE 896 624 896 512
WIRE 896 624 752 624
WIRE 1360 624 1360 208
WIRE 1360 624 896 624
WIRE 1600 624 1600 400
WIRE 1600 624 1360 624
WIRE 1904 624 1904 288
WIRE 1904 624 1600 624
WIRE 432 672 432 624
FLAG 192 -192 0
FLAG 672 544 0
FLAG 112 288 0
FLAG 432 672 0
FLAG 416 -368 0
FLAG 2448 112 0
FLAG 1504 -192 0
FLAG 2224 48 out
FLAG 512 240 in
FLAG 1200 48 0
DATAFLAG 912 176 ""
SYMBOL voltage 112 112 R0
WINDOW 123 24 124 Left 2
WINDOW 39 24 152 Left 2
SYMATTR Value2 AC 500m
SYMATTR SpiceLine Rser=50
SYMATTR InstName V1
SYMATTR Value SINE(0 500m 100k)
SYMBOL res 176 -128 R0
SYMATTR InstName R2
SYMATTR Value 50
SYMBOL npn 672 0 R0
SYMATTR InstName Q1
SYMATTR Value 2N2222
SYMBOL npn 1120 0 M0
SYMATTR InstName Q2
SYMATTR Value 2N2222
SYMBOL res 1040 -240 R0
SYMATTR InstName RC
SYMATTR Value {mc(12k,tol)}
SYMBOL pnp 1296 -32 M180
SYMATTR InstName Q3
SYMATTR Value 2N3906
SYMBOL res 1344 112 R0
SYMATTR InstName R5
SYMATTR Value {mc(3k9,tol)}
SYMBOL npn 832 256 R0
SYMATTR InstName Q4
SYMATTR Value 2N2222
SYMBOL res 880 416 R0
SYMATTR InstName R6
SYMATTR Value {mc(2k2,tol)}
SYMBOL res 736 368 R0
WINDOW 3 34 100 Left 2
SYMATTR Value {mc(22k,tol)}
SYMATTR InstName R7
SYMBOL res 656 368 R0
SYMATTR InstName R8
SYMATTR Value {mc(47k,tol)}
SYMBOL npn 1536 -128 R0
SYMATTR InstName Q5
SYMATTR Value 2N3904
SYMBOL pnp 1536 224 M180
SYMATTR InstName Q6
SYMATTR Value 2N3906
SYMBOL npn 1840 -192 R0
SYMATTR InstName Q7
SYMATTR Value 2N3904
SYMBOL pnp 1840 288 M180
SYMATTR InstName Q8
SYMATTR Value 2N3906
SYMBOL res 1888 64 R0
SYMATTR InstName R10
SYMATTR Value {mc(10,tol)}
SYMBOL res 1888 -96 R0
SYMATTR InstName R11
SYMATTR Value {mc(10,tol)}
SYMBOL voltage 608 624 R90
WINDOW 0 -32 56 VBottom 2
WINDOW 3 32 56 VTop 2
WINDOW 123 0 0 Left 0
WINDOW 39 0 0 Left 0
SYMATTR InstName V2
SYMATTR Value -12
SYMBOL voltage 560 -320 R90
WINDOW 0 -32 56 VBottom 2
WINDOW 3 32 56 VTop 2
WINDOW 123 0 0 Left 0
WINDOW 39 0 0 Left 0
SYMATTR InstName V3
SYMATTR Value 12
SYMBOL res 2176 32 R90
WINDOW 0 0 56 VBottom 2
WINDOW 3 32 56 VTop 2
SYMATTR InstName R14
SYMATTR Value {mc(47,tol)}
SYMBOL res 2368 32 R90
WINDOW 0 0 56 VBottom 2
WINDOW 3 32 56 VTop 2
SYMATTR InstName R15
SYMATTR Value {mc(47,tol)}
SYMBOL res 1584 304 R0
SYMATTR InstName R16
SYMATTR Value {mc(10k,tol)}
SYMBOL res 1584 -288 R0
SYMATTR InstName R17
SYMATTR Value {mc(10k,tol)}
SYMBOL res 1344 -288 R0
SYMATTR InstName R18
SYMATTR Value {mc(1k8,tol)}
SYMBOL res 1776 64 R90
WINDOW 0 0 56 VBottom 2
WINDOW 3 32 56 VTop 2
SYMATTR InstName R19
SYMATTR Value {mc(22k,tol)}
SYMBOL res 576 96 R0
SYMATTR InstName R1
SYMATTR Value {mc(1k,tol)}
SYMBOL cap 1472 -176 R90
WINDOW 0 0 32 VBottom 2
WINDOW 3 32 32 VTop 2
SYMATTR InstName C1
SYMATTR Value 22µ
SYMBOL res 1040 160 R90
WINDOW 0 0 56 VBottom 2
WINDOW 3 32 56 VTop 2
SYMATTR InstName R3
SYMATTR Value {mc(22,tol)}
TEXT 32 632 Left 2 !.tran 0 2m 1.95m 0.01m
TEXT 32 696 Left 2 ;.ac dec 10 1 100meg
TEXT 32 744 Left 2 !.param tol=0.01
TEXT 32 784 Left 2 !.step param run 1 50 1
